NOVO24/1726529/_ATERRAMENTO.dss
! Aterramento do neutro (no 4) dos secundarios de BT
! Reactor de 0.5 ohm entre o no 4 e a terra (no 0).
New Reactor.NEUTRO_node_1004629092 phases=1 bus1=node_1004629092.4 bus2=node_1004629092.0 R=0.5 X=0
New Reactor.NEUTRO_node_1004629455 phases=1 bus1=node_1004629455.4 bus2=node_1004629455.0 R=0.5 X=0
New Reactor.NEUTRO_node_1004629753 phases=1 bus1=node_1004629753.4 bus2=node_1004629753.0 R=0.5 X=0
New Reactor.NEUTRO_node_1007677315 phases=1 bus1=node_1007677315.4 bus2=node_1007677315.0 R=0.5 X=0
New Reactor.NEUTRO_node_1011838207 phases=1 bus1=node_1011838207.4 bus2=node_1011838207.0 R=0.5 X=0
New Reactor.NEUTRO_node_1029074455 phases=1 bus1=node_1029074455.4 bus2=node_1029074455.0 R=0.5 X=0
New Reactor.NEUTRO_node_1029074675 phases=1 bus1=node_1029074675.4 bus2=node_1029074675.0 R=0.5 X=0
New Reactor.NEUTRO_node_1061172091 phases=1 bus1=node_1061172091.4 bus2=node_1061172091.0 R=0.5 X=0
New Reactor.NEUTRO_node_1071005533 phases=1 bus1=node_1071005533.4 bus2=node_1071005533.0 R=0.5 X=0
New Reactor.NEUTRO_node_1076158075 phases=1 bus1=node_1076158075.4 bus2=node_1076158075.0 R=0.5 X=0
New Reactor.NEUTRO_node_1080439109 phases=1 bus1=node_1080439109.4 bus2=node_1080439109.0 R=0.5 X=0
New Reactor.NEUTRO_node_1081912280 phases=1 bus1=node_1081912280.4 bus2=node_1081912280.0 R=0.5 X=0
New Reactor.NEUTRO_node_1088030906 phases=1 bus1=node_1088030906.4 bus2=node_1088030906.0 R=0.5 X=0
New Reactor.NEUTRO_node_1119776455 phases=1 bus1=node_1119776455.4 bus2=node_1119776455.0 R=0.5 X=0
New Reactor.NEUTRO_node_1146824381 phases=1 bus1=node_1146824381.4 bus2=node_1146824381.0 R=0.5 X=0
New Reactor.NEUTRO_node_1154497839 phases=1 bus1=node_1154497839.4 bus2=node_1154497839.0 R=0.5 X=0
New Reactor.NEUTRO_node_1155013368 phases=1 bus1=node_1155013368.4 bus2=node_1155013368.0 R=0.5 X=0
New Reactor.NEUTRO_node_1178179402 phases=1 bus1=node_1178179402.4 bus2=node_1178179402.0 R=0.5 X=0
New Reactor.NEUTRO_node_1192912034 phases=1 bus1=node_1192912034.4 bus2=node_1192912034.0 R=0.5 X=0
New Reactor.NEUTRO_node_1212252806 phases=1 bus1=node_1212252806.4 bus2=node_1212252806.0 R=0.5 X=0
New Reactor.NEUTRO_node_1212252907 phases=1 bus1=node_1212252907.4 bus2=node_1212252907.0 R=0.5 X=0
New Reactor.NEUTRO_node_1212592412 phases=1 bus1=node_1212592412.4 bus2=node_1212592412.0 R=0.5 X=0
New Reactor.NEUTRO_node_1220556806 phases=1 bus1=node_1220556806.4 bus2=node_1220556806.0 R=0.5 X=0
New Reactor.NEUTRO_node_1220556969 phases=1 bus1=node_1220556969.4 bus2=node_1220556969.0 R=0.5 X=0
New Reactor.NEUTRO_node_1232773087 phases=1 bus1=node_1232773087.4 bus2=node_1232773087.0 R=0.5 X=0
New Reactor.NEUTRO_node_1233391432 phases=1 bus1=node_1233391432.4 bus2=node_1233391432.0 R=0.5 X=0
New Reactor.NEUTRO_node_1238871230 phases=1 bus1=node_1238871230.4 bus2=node_1238871230.0 R=0.5 X=0
New Reactor.NEUTRO_node_1239901395 phases=1 bus1=node_1239901395.4 bus2=node_1239901395.0 R=0.5 X=0
New Reactor.NEUTRO_node_1241619332 phases=1 bus1=node_1241619332.4 bus2=node_1241619332.0 R=0.5 X=0
New Reactor.NEUTRO_node_1246913394 phases=1 bus1=node_1246913394.4 bus2=node_1246913394.0 R=0.5 X=0
New Reactor.NEUTRO_node_1252907635 phases=1 bus1=node_1252907635.4 bus2=node_1252907635.0 R=0.5 X=0
New Reactor.NEUTRO_node_1275442636 phases=1 bus1=node_1275442636.4 bus2=node_1275442636.0 R=0.5 X=0
New Reactor.NEUTRO_node_1275442814 phases=1 bus1=node_1275442814.4 bus2=node_1275442814.0 R=0.5 X=0
New Reactor.NEUTRO_node_1277469334 phases=1 bus1=node_1277469334.4 bus2=node_1277469334.0 R=0.5 X=0
New Reactor.NEUTRO_node_1280853313 phases=1 bus1=node_1280853313.4 bus2=node_1280853313.0 R=0.5 X=0
New Reactor.NEUTRO_node_1301370138 phases=1 bus1=node_1301370138.4 bus2=node_1301370138.0 R=0.5 X=0
New Reactor.NEUTRO_node_1306449654 phases=1 bus1=node_1306449654.4 bus2=node_1306449654.0 R=0.5 X=0
New Reactor.NEUTRO_node_1311675426 phases=1 bus1=node_1311675426.4 bus2=node_1311675426.0 R=0.5 X=0
New Reactor.NEUTRO_node_1311675612 phases=1 bus1=node_1311675612.4 bus2=node_1311675612.0 R=0.5 X=0
New Reactor.NEUTRO_node_1311976067 phases=1 bus1=node_1311976067.4 bus2=node_1311976067.0 R=0.5 X=0
New Reactor.NEUTRO_node_1311976224 phases=1 bus1=node_1311976224.4 bus2=node_1311976224.0 R=0.5 X=0
New Reactor.NEUTRO_node_1314904462 phases=1 bus1=node_1314904462.4 bus2=node_1314904462.0 R=0.5 X=0
New Reactor.NEUTRO_node_1321680548 phases=1 bus1=node_1321680548.4 bus2=node_1321680548.0 R=0.5 X=0
New Reactor.NEUTRO_node_1330955552 phases=1 bus1=node_1330955552.4 bus2=node_1330955552.0 R=0.5 X=0
New Reactor.NEUTRO_node_1331754467 phases=1 bus1=node_1331754467.4 bus2=node_1331754467.0 R=0.5 X=0
New Reactor.NEUTRO_node_1331754688 phases=1 bus1=node_1331754688.4 bus2=node_1331754688.0 R=0.5 X=0
New Reactor.NEUTRO_node_1332102122 phases=1 bus1=node_1332102122.4 bus2=node_1332102122.0 R=0.5 X=0
New Reactor.NEUTRO_node_1332183538 phases=1 bus1=node_1332183538.4 bus2=node_1332183538.0 R=0.5 X=0
New Reactor.NEUTRO_node_1333407367 phases=1 bus1=node_1333407367.4 bus2=node_1333407367.0 R=0.5 X=0
New Reactor.NEUTRO_node_1338878416 phases=1 bus1=node_1338878416.4 bus2=node_1338878416.0 R=0.5 X=0
New Reactor.NEUTRO_node_1349218095 phases=1 bus1=node_1349218095.4 bus2=node_1349218095.0 R=0.5 X=0
New Reactor.NEUTRO_node_1360769101 phases=1 bus1=node_1360769101.4 bus2=node_1360769101.0 R=0.5 X=0
New Reactor.NEUTRO_node_1378282083 phases=1 bus1=node_1378282083.4 bus2=node_1378282083.0 R=0.5 X=0
New Reactor.NEUTRO_node_1378881229 phases=1 bus1=node_1378881229.4 bus2=node_1378881229.0 R=0.5 X=0
New Reactor.NEUTRO_node_1379817717 phases=1 bus1=node_1379817717.4 bus2=node_1379817717.0 R=0.5 X=0
New Reactor.NEUTRO_node_1379817832 phases=1 bus1=node_1379817832.4 bus2=node_1379817832.0 R=0.5 X=0
New Reactor.NEUTRO_node_1382135612 phases=1 bus1=node_1382135612.4 bus2=node_1382135612.0 R=0.5 X=0
New Reactor.NEUTRO_node_1384355975 phases=1 bus1=node_1384355975.4 bus2=node_1384355975.0 R=0.5 X=0
New Reactor.NEUTRO_node_1399247177 phases=1 bus1=node_1399247177.4 bus2=node_1399247177.0 R=0.5 X=0
New Reactor.NEUTRO_node_1400308036 phases=1 bus1=node_1400308036.4 bus2=node_1400308036.0 R=0.5 X=0
New Reactor.NEUTRO_node_1401768081 phases=1 bus1=node_1401768081.4 bus2=node_1401768081.0 R=0.5 X=0
New Reactor.NEUTRO_node_1401845080 phases=1 bus1=node_1401845080.4 bus2=node_1401845080.0 R=0.5 X=0
New Reactor.NEUTRO_node_1402454803 phases=1 bus1=node_1402454803.4 bus2=node_1402454803.0 R=0.5 X=0
New Reactor.NEUTRO_node_1405946101 phases=1 bus1=node_1405946101.4 bus2=node_1405946101.0 R=0.5 X=0
New Reactor.NEUTRO_node_1405946169 phases=1 bus1=node_1405946169.4 bus2=node_1405946169.0 R=0.5 X=0
New Reactor.NEUTRO_node_1433642745 phases=1 bus1=node_1433642745.4 bus2=node_1433642745.0 R=0.5 X=0
New Reactor.NEUTRO_node_1433955564 phases=1 bus1=node_1433955564.4 bus2=node_1433955564.0 R=0.5 X=0
New Reactor.NEUTRO_node_1433955720 phases=1 bus1=node_1433955720.4 bus2=node_1433955720.0 R=0.5 X=0
New Reactor.NEUTRO_node_1441298352 phases=1 bus1=node_1441298352.4 bus2=node_1441298352.0 R=0.5 X=0
New Reactor.NEUTRO_node_1453902423 phases=1 bus1=node_1453902423.4 bus2=node_1453902423.0 R=0.5 X=0
New Reactor.NEUTRO_node_1453902613 phases=1 bus1=node_1453902613.4 bus2=node_1453902613.0 R=0.5 X=0
New Reactor.NEUTRO_node_1453903903 phases=1 bus1=node_1453903903.4 bus2=node_1453903903.0 R=0.5 X=0
New Reactor.NEUTRO_node_1476350354 phases=1 bus1=node_1476350354.4 bus2=node_1476350354.0 R=0.5 X=0
New Reactor.NEUTRO_node_1498790885 phases=1 bus1=node_1498790885.4 bus2=node_1498790885.0 R=0.5 X=0
New Reactor.NEUTRO_node_1498790922 phases=1 bus1=node_1498790922.4 bus2=node_1498790922.0 R=0.5 X=0
New Reactor.NEUTRO_node_1511157511 phases=1 bus1=node_1511157511.4 bus2=node_1511157511.0 R=0.5 X=0
New Reactor.NEUTRO_node_1511157743 phases=1 bus1=node_1511157743.4 bus2=node_1511157743.0 R=0.5 X=0
New Reactor.NEUTRO_node_1517259196 phases=1 bus1=node_1517259196.4 bus2=node_1517259196.0 R=0.5 X=0
New Reactor.NEUTRO_node_1523365274 phases=1 bus1=node_1523365274.4 bus2=node_1523365274.0 R=0.5 X=0
New Reactor.NEUTRO_node_1528814342 phases=1 bus1=node_1528814342.4 bus2=node_1528814342.0 R=0.5 X=0
New Reactor.NEUTRO_node_1547257141 phases=1 bus1=node_1547257141.4 bus2=node_1547257141.0 R=0.5 X=0
New Reactor.NEUTRO_node_1562393432 phases=1 bus1=node_1562393432.4 bus2=node_1562393432.0 R=0.5 X=0
New Reactor.NEUTRO_node_1564746813 phases=1 bus1=node_1564746813.4 bus2=node_1564746813.0 R=0.5 X=0
New Reactor.NEUTRO_node_1568379281 phases=1 bus1=node_1568379281.4 bus2=node_1568379281.0 R=0.5 X=0
New Reactor.NEUTRO_node_1583794877 phases=1 bus1=node_1583794877.4 bus2=node_1583794877.0 R=0.5 X=0
New Reactor.NEUTRO_node_1590858341 phases=1 bus1=node_1590858341.4 bus2=node_1590858341.0 R=0.5 X=0
New Reactor.NEUTRO_node_1590858419 phases=1 bus1=node_1590858419.4 bus2=node_1590858419.0 R=0.5 X=0
New Reactor.NEUTRO_node_1595848006 phases=1 bus1=node_1595848006.4 bus2=node_1595848006.0 R=0.5 X=0
New Reactor.NEUTRO_node_1597441063 phases=1 bus1=node_1597441063.4 bus2=node_1597441063.0 R=0.5 X=0
New Reactor.NEUTRO_node_1598106586 phases=1 bus1=node_1598106586.4 bus2=node_1598106586.0 R=0.5 X=0
New Reactor.NEUTRO_node_1612856587 phases=1 bus1=node_1612856587.4 bus2=node_1612856587.0 R=0.5 X=0
New Reactor.NEUTRO_node_1612856772 phases=1 bus1=node_1612856772.4 bus2=node_1612856772.0 R=0.5 X=0
New Reactor.NEUTRO_node_1621174086 phases=1 bus1=node_1621174086.4 bus2=node_1621174086.0 R=0.5 X=0
New Reactor.NEUTRO_node_1623446896 phases=1 bus1=node_1623446896.4 bus2=node_1623446896.0 R=0.5 X=0
New Reactor.NEUTRO_node_1623447023 phases=1 bus1=node_1623447023.4 bus2=node_1623447023.0 R=0.5 X=0
New Reactor.NEUTRO_node_1623447108 phases=1 bus1=node_1623447108.4 bus2=node_1623447108.0 R=0.5 X=0
New Reactor.NEUTRO_node_1624103451 phases=1 bus1=node_1624103451.4 bus2=node_1624103451.0 R=0.5 X=0
New Reactor.NEUTRO_node_1624103641 phases=1 bus1=node_1624103641.4 bus2=node_1624103641.0 R=0.5 X=0
New Reactor.NEUTRO_node_1628199125 phases=1 bus1=node_1628199125.4 bus2=node_1628199125.0 R=0.5 X=0
New Reactor.NEUTRO_node_1631243649 phases=1 bus1=node_1631243649.4 bus2=node_1631243649.0 R=0.5 X=0
New Reactor.NEUTRO_node_1631273581 phases=1 bus1=node_1631273581.4 bus2=node_1631273581.0 R=0.5 X=0
New Reactor.NEUTRO_node_1634008741 phases=1 bus1=node_1634008741.4 bus2=node_1634008741.0 R=0.5 X=0
New Reactor.NEUTRO_node_1642077173 phases=1 bus1=node_1642077173.4 bus2=node_1642077173.0 R=0.5 X=0
New Reactor.NEUTRO_node_1651502542 phases=1 bus1=node_1651502542.4 bus2=node_1651502542.0 R=0.5 X=0
New Reactor.NEUTRO_node_1651584233 phases=1 bus1=node_1651584233.4 bus2=node_1651584233.0 R=0.5 X=0
New Reactor.NEUTRO_node_1655878240 phases=1 bus1=node_1655878240.4 bus2=node_1655878240.0 R=0.5 X=0
New Reactor.NEUTRO_node_1657127655 phases=1 bus1=node_1657127655.4 bus2=node_1657127655.0 R=0.5 X=0
New Reactor.NEUTRO_node_1659339187 phases=1 bus1=node_1659339187.4 bus2=node_1659339187.0 R=0.5 X=0
New Reactor.NEUTRO_node_1659339432 phases=1 bus1=node_1659339432.4 bus2=node_1659339432.0 R=0.5 X=0
New Reactor.NEUTRO_node_1659970451 phases=1 bus1=node_1659970451.4 bus2=node_1659970451.0 R=0.5 X=0
New Reactor.NEUTRO_node_1664708204 phases=1 bus1=node_1664708204.4 bus2=node_1664708204.0 R=0.5 X=0
New Reactor.NEUTRO_node_1672015047 phases=1 bus1=node_1672015047.4 bus2=node_1672015047.0 R=0.5 X=0
New Reactor.NEUTRO_node_1678657849 phases=1 bus1=node_1678657849.4 bus2=node_1678657849.0 R=0.5 X=0
New Reactor.NEUTRO_node_1678657920 phases=1 bus1=node_1678657920.4 bus2=node_1678657920.0 R=0.5 X=0
New Reactor.NEUTRO_node_1680435475 phases=1 bus1=node_1680435475.4 bus2=node_1680435475.0 R=0.5 X=0
New Reactor.NEUTRO_node_1681680857 phases=1 bus1=node_1681680857.4 bus2=node_1681680857.0 R=0.5 X=0
New Reactor.NEUTRO_node_1681681017 phases=1 bus1=node_1681681017.4 bus2=node_1681681017.0 R=0.5 X=0
New Reactor.NEUTRO_node_1688117422 phases=1 bus1=node_1688117422.4 bus2=node_1688117422.0 R=0.5 X=0
New Reactor.NEUTRO_node_1692755324 phases=1 bus1=node_1692755324.4 bus2=node_1692755324.0 R=0.5 X=0
New Reactor.NEUTRO_node_1692755510 phases=1 bus1=node_1692755510.4 bus2=node_1692755510.0 R=0.5 X=0
New Reactor.NEUTRO_node_1711670186 phases=1 bus1=node_1711670186.4 bus2=node_1711670186.0 R=0.5 X=0
New Reactor.NEUTRO_node_1711670214 phases=1 bus1=node_1711670214.4 bus2=node_1711670214.0 R=0.5 X=0
New Reactor.NEUTRO_node_1712932544 phases=1 bus1=node_1712932544.4 bus2=node_1712932544.0 R=0.5 X=0
New Reactor.NEUTRO_node_1719034553 phases=1 bus1=node_1719034553.4 bus2=node_1719034553.0 R=0.5 X=0
New Reactor.NEUTRO_node_1719356283 phases=1 bus1=node_1719356283.4 bus2=node_1719356283.0 R=0.5 X=0
New Reactor.NEUTRO_node_1729000674 phases=1 bus1=node_1729000674.4 bus2=node_1729000674.0 R=0.5 X=0
New Reactor.NEUTRO_node_1744909973 phases=1 bus1=node_1744909973.4 bus2=node_1744909973.0 R=0.5 X=0
New Reactor.NEUTRO_node_1750977297 phases=1 bus1=node_1750977297.4 bus2=node_1750977297.0 R=0.5 X=0
New Reactor.NEUTRO_node_1760007840 phases=1 bus1=node_1760007840.4 bus2=node_1760007840.0 R=0.5 X=0
New Reactor.NEUTRO_node_1798262887 phases=1 bus1=node_1798262887.4 bus2=node_1798262887.0 R=0.5 X=0
New Reactor.NEUTRO_node_1798262972 phases=1 bus1=node_1798262972.4 bus2=node_1798262972.0 R=0.5 X=0
New Reactor.NEUTRO_node_1803364231 phases=1 bus1=node_1803364231.4 bus2=node_1803364231.0 R=0.5 X=0
New Reactor.NEUTRO_node_1805897923 phases=1 bus1=node_1805897923.4 bus2=node_1805897923.0 R=0.5 X=0
New Reactor.NEUTRO_node_1805898583 phases=1 bus1=node_1805898583.4 bus2=node_1805898583.0 R=0.5 X=0
New Reactor.NEUTRO_node_1813300482 phases=1 bus1=node_1813300482.4 bus2=node_1813300482.0 R=0.5 X=0
New Reactor.NEUTRO_node_1816606773 phases=1 bus1=node_1816606773.4 bus2=node_1816606773.0 R=0.5 X=0
New Reactor.NEUTRO_node_1817332731 phases=1 bus1=node_1817332731.4 bus2=node_1817332731.0 R=0.5 X=0
New Reactor.NEUTRO_node_1817332983 phases=1 bus1=node_1817332983.4 bus2=node_1817332983.0 R=0.5 X=0
New Reactor.NEUTRO_node_1819157758 phases=1 bus1=node_1819157758.4 bus2=node_1819157758.0 R=0.5 X=0
New Reactor.NEUTRO_node_1847699991 phases=1 bus1=node_1847699991.4 bus2=node_1847699991.0 R=0.5 X=0
New Reactor.NEUTRO_node_1861174465 phases=1 bus1=node_1861174465.4 bus2=node_1861174465.0 R=0.5 X=0
New Reactor.NEUTRO_node_1865863359 phases=1 bus1=node_1865863359.4 bus2=node_1865863359.0 R=0.5 X=0
New Reactor.NEUTRO_node_1866872500 phases=1 bus1=node_1866872500.4 bus2=node_1866872500.0 R=0.5 X=0
New Reactor.NEUTRO_node_1866872701 phases=1 bus1=node_1866872701.4 bus2=node_1866872701.0 R=0.5 X=0
New Reactor.NEUTRO_node_1870106220 phases=1 bus1=node_1870106220.4 bus2=node_1870106220.0 R=0.5 X=0
New Reactor.NEUTRO_node_1873365393 phases=1 bus1=node_1873365393.4 bus2=node_1873365393.0 R=0.5 X=0
New Reactor.NEUTRO_node_1873365655 phases=1 bus1=node_1873365655.4 bus2=node_1873365655.0 R=0.5 X=0
New Reactor.NEUTRO_node_1879505491 phases=1 bus1=node_1879505491.4 bus2=node_1879505491.0 R=0.5 X=0
New Reactor.NEUTRO_node_1879505601 phases=1 bus1=node_1879505601.4 bus2=node_1879505601.0 R=0.5 X=0
New Reactor.NEUTRO_node_1884988900 phases=1 bus1=node_1884988900.4 bus2=node_1884988900.0 R=0.5 X=0
New Reactor.NEUTRO_node_1888028929 phases=1 bus1=node_1888028929.4 bus2=node_1888028929.0 R=0.5 X=0
New Reactor.NEUTRO_node_1888029720 phases=1 bus1=node_1888029720.4 bus2=node_1888029720.0 R=0.5 X=0
New Reactor.NEUTRO_node_1890223154 phases=1 bus1=node_1890223154.4 bus2=node_1890223154.0 R=0.5 X=0
New Reactor.NEUTRO_node_1890223376 phases=1 bus1=node_1890223376.4 bus2=node_1890223376.0 R=0.5 X=0
New Reactor.NEUTRO_node_1890420999 phases=1 bus1=node_1890420999.4 bus2=node_1890420999.0 R=0.5 X=0
New Reactor.NEUTRO_node_1892773775 phases=1 bus1=node_1892773775.4 bus2=node_1892773775.0 R=0.5 X=0
New Reactor.NEUTRO_node_1895037532 phases=1 bus1=node_1895037532.4 bus2=node_1895037532.0 R=0.5 X=0
New Reactor.NEUTRO_node_1896178969 phases=1 bus1=node_1896178969.4 bus2=node_1896178969.0 R=0.5 X=0
New Reactor.NEUTRO_node_1909275636 phases=1 bus1=node_1909275636.4 bus2=node_1909275636.0 R=0.5 X=0
New Reactor.NEUTRO_node_1912268896 phases=1 bus1=node_1912268896.4 bus2=node_1912268896.0 R=0.5 X=0
New Reactor.NEUTRO_node_1913050045 phases=1 bus1=node_1913050045.4 bus2=node_1913050045.0 R=0.5 X=0
New Reactor.NEUTRO_node_1919173417 phases=1 bus1=node_1919173417.4 bus2=node_1919173417.0 R=0.5 X=0
New Reactor.NEUTRO_node_1925833380 phases=1 bus1=node_1925833380.4 bus2=node_1925833380.0 R=0.5 X=0
New Reactor.NEUTRO_node_1925833712 phases=1 bus1=node_1925833712.4 bus2=node_1925833712.0 R=0.5 X=0
New Reactor.NEUTRO_node_1931140788 phases=1 bus1=node_1931140788.4 bus2=node_1931140788.0 R=0.5 X=0
New Reactor.NEUTRO_node_1935374601 phases=1 bus1=node_1935374601.4 bus2=node_1935374601.0 R=0.5 X=0
New Reactor.NEUTRO_node_1944194479 phases=1 bus1=node_1944194479.4 bus2=node_1944194479.0 R=0.5 X=0
New Reactor.NEUTRO_node_1960812205 phases=1 bus1=node_1960812205.4 bus2=node_1960812205.0 R=0.5 X=0
New Reactor.NEUTRO_node_1971620216 phases=1 bus1=node_1971620216.4 bus2=node_1971620216.0 R=0.5 X=0
New Reactor.NEUTRO_node_1971620306 phases=1 bus1=node_1971620306.4 bus2=node_1971620306.0 R=0.5 X=0
New Reactor.NEUTRO_node_2013895452 phases=1 bus1=node_2013895452.4 bus2=node_2013895452.0 R=0.5 X=0
New Reactor.NEUTRO_node_2017630444 phases=1 bus1=node_2017630444.4 bus2=node_2017630444.0 R=0.5 X=0
New Reactor.NEUTRO_node_2023109844 phases=1 bus1=node_2023109844.4 bus2=node_2023109844.0 R=0.5 X=0
New Reactor.NEUTRO_node_2031220921 phases=1 bus1=node_2031220921.4 bus2=node_2031220921.0 R=0.5 X=0
New Reactor.NEUTRO_node_2057397122 phases=1 bus1=node_2057397122.4 bus2=node_2057397122.0 R=0.5 X=0
New Reactor.NEUTRO_node_2064795836 phases=1 bus1=node_2064795836.4 bus2=node_2064795836.0 R=0.5 X=0
New Reactor.NEUTRO_node_2064795972 phases=1 bus1=node_2064795972.4 bus2=node_2064795972.0 R=0.5 X=0
New Reactor.NEUTRO_node_2088365533 phases=1 bus1=node_2088365533.4 bus2=node_2088365533.0 R=0.5 X=0
New Reactor.NEUTRO_node_2108349975 phases=1 bus1=node_2108349975.4 bus2=node_2108349975.0 R=0.5 X=0
New Reactor.NEUTRO_node_2108684782 phases=1 bus1=node_2108684782.4 bus2=node_2108684782.0 R=0.5 X=0
New Reactor.NEUTRO_node_2119077105 phases=1 bus1=node_2119077105.4 bus2=node_2119077105.0 R=0.5 X=0
New Reactor.NEUTRO_node_2119077686 phases=1 bus1=node_2119077686.4 bus2=node_2119077686.0 R=0.5 X=0
New Reactor.NEUTRO_node_2119079939 phases=1 bus1=node_2119079939.4 bus2=node_2119079939.0 R=0.5 X=0
New Reactor.NEUTRO_node_2122936915 phases=1 bus1=node_2122936915.4 bus2=node_2122936915.0 R=0.5 X=0
New Reactor.NEUTRO_node_2123258605 phases=1 bus1=node_2123258605.4 bus2=node_2123258605.0 R=0.5 X=0
New Reactor.NEUTRO_node_2125055379 phases=1 bus1=node_2125055379.4 bus2=node_2125055379.0 R=0.5 X=0
New Reactor.NEUTRO_node_2129021162 phases=1 bus1=node_2129021162.4 bus2=node_2129021162.0 R=0.5 X=0
New Reactor.NEUTRO_node_2129429007 phases=1 bus1=node_2129429007.4 bus2=node_2129429007.0 R=0.5 X=0
New Reactor.NEUTRO_node_2129429062 phases=1 bus1=node_2129429062.4 bus2=node_2129429062.0 R=0.5 X=0
New Reactor.NEUTRO_node_2187089592 phases=1 bus1=node_2187089592.4 bus2=node_2187089592.0 R=0.5 X=0
New Reactor.NEUTRO_node_2201447956 phases=1 bus1=node_2201447956.4 bus2=node_2201447956.0 R=0.5 X=0
New Reactor.NEUTRO_node_2208760698 phases=1 bus1=node_2208760698.4 bus2=node_2208760698.0 R=0.5 X=0
New Reactor.NEUTRO_node_2208859785 phases=1 bus1=node_2208859785.4 bus2=node_2208859785.0 R=0.5 X=0
New Reactor.NEUTRO_node_2213638764 phases=1 bus1=node_2213638764.4 bus2=node_2213638764.0 R=0.5 X=0
New Reactor.NEUTRO_node_2216541423 phases=1 bus1=node_2216541423.4 bus2=node_2216541423.0 R=0.5 X=0
New Reactor.NEUTRO_node_2216614405 phases=1 bus1=node_2216614405.4 bus2=node_2216614405.0 R=0.5 X=0
New Reactor.NEUTRO_node_2220054176 phases=1 bus1=node_2220054176.4 bus2=node_2220054176.0 R=0.5 X=0
New Reactor.NEUTRO_node_2220054302 phases=1 bus1=node_2220054302.4 bus2=node_2220054302.0 R=0.5 X=0
New Reactor.NEUTRO_node_2220238541 phases=1 bus1=node_2220238541.4 bus2=node_2220238541.0 R=0.5 X=0
New Reactor.NEUTRO_node_2220238630 phases=1 bus1=node_2220238630.4 bus2=node_2220238630.0 R=0.5 X=0
...
